[Format]      =  4.0
[Frequency]   =  0
[Precision]   =  1e-008
[MinAngle]    =  30
[DoSmartMesh] =  1
[Depth]       =  5
[LengthUnits] =  millimeters
[ProblemType] =  planar
[Coordinates] =  cartesian
[ACSolver]    =  0
[PrevType]    =  0
[PrevSoln]    =  ""
[Comment]     =  "Add comments here."
[PointProps]   = 0
[BdryProps]   = 1
  <BeginBdry>
    <BdryName> = "border"
    <BdryType> = 2
    <A_0> = 0
    <A_1> = 0
    <A_2> = 0
    <Phi> = 0
    <c0> = 31329713.207066011
    <c0i> = 0
    <c1> = 0
    <c1i> = 0
    <Mu_ssd> = 0
    <Sigma_ssd> = 0
    <innerangle> = 0
    <outerangle> = 0
  <EndBdry>
[BlockProps]  = 2
  <BeginBlock>
    <BlockName> = "m"
    <Mu_x> = 1.05
    <Mu_y> = 1.05
    <H_c> = 1006582.16453601
    <H_cAngle> = 0
    <J_re> = 0
    <J_im> = 0
    <Sigma> = 0
    <d_lam> = 0
    <Phi_h> = 0
    <Phi_hx> = 0
    <Phi_hy> = 0
    <LamType> = 0
    <LamFill> = 1
    <NStrands> = 0
    <WireD> = 0
    <BHPoints> = 0
  <EndBlock>
  <BeginBlock>
    <BlockName> = "air"
    <Mu_x> = 1
    <Mu_y> = 1
    <H_c> = 0
    <H_cAngle> = 0
    <J_re> = 0
    <J_im> = 0
    <Sigma> = 0
    <d_lam> = 0
    <Phi_h> = 0
    <Phi_hx> = 0
    <Phi_hy> = 0
    <LamType> = 0
    <LamFill> = 1
    <NStrands> = 0
    <WireD> = 0
    <BHPoints> = 0
  <EndBlock>
[CircuitProps]  = 0
[NumPoints] = 272
120	30	0	0
125	30	0	0
130	30	0	0
135	30	0	0
140	30	0	0
145	30	0	0
150	30	0	0
155	30	0	0
160	30	0	0
165	30	0	0
170	30	0	0
120	35	0	0
120	40	0	0
120	45	0	0
120	50	0	0
0	25	0	0
0	30	0	0
0	35	0	0
0	40	0	0
0	45	0	0
0	50	0	0
125	35	0	0
125	40	0	0
125	45	0	0
125	50	0	0
5	25	0	0
5	30	0	0
5	35	0	0
5	40	0	0
5	45	0	0
5	50	0	0
130	35	0	0
130	45	0	0
130	40	0	0
10	25	0	0
130	50	0	0
10	30	0	0
10	35	0	0
10	40	0	0
10	45	0	0
10	50	0	0
135	35	0	0
135	40	0	0
135	45	0	0
135	50	0	0
15	25	0	0
15	30	0	0
15	35	0	0
15	40	0	0
15	45	0	0
15	50	0	0
140	35	0	0
140	40	0	0
140	45	0	0
140	50	0	0
20	25	0	0
20	30	0	0
20	35	0	0
20	45	0	0
20	40	0	0
20	50	0	0
145	35	0	0
145	40	0	0
145	45	0	0
25	30	0	0
25	25	0	0
145	50	0	0
25	35	0	0
25	40	0	0
25	45	0	0
25	50	0	0
150	35	0	0
150	40	0	0
150	45	0	0
150	50	0	0
30	25	0	0
30	30	0	0
30	35	0	0
30	40	0	0
30	45	0	0
30	50	0	0
155	35	0	0
155	40	0	0
155	45	0	0
155	50	0	0
35	25	0	0
35	30	0	0
35	35	0	0
35	40	0	0
35	45	0	0
35	50	0	0
160	35	0	0
160	45	0	0
160	40	0	0
160	50	0	0
40	25	0	0
40	30	0	0
40	35	0	0
40	45	0	0
40	40	0	0
40	50	0	0
165	35	0	0
165	40	0	0
165	50	0	0
165	45	0	0
45	25	0	0
45	30	0	0
45	35	0	0
45	45	0	0
45	40	0	0
45	50	0	0
170	35	0	0
170	40	0	0
170	45	0	0
170	50	0	0
50	35	0	0
50	25	0	0
50	30	0	0
50	40	0	0
50	45	0	0
50	50	0	0
120	25	0	0
125	25	0	0
130	25	0	0
135	25	0	0
140	25	0	0
145	25	0	0
150	25	0	0
155	25	0	0
160	25	0	0
165	25	0	0
170	25	0	0
-25	38	0	0
75	38.100000000000001	0	0
95	38.700000000000003	0	0
195	38.399999999999999	0	0
120	-80	0	0
125	-80	0	0
130	-80	0	0
135	-80	0	0
140	-80	0	0
145	-80	0	0
150	-80	0	0
155	-80	0	0
160	-80	0	0
165	-80	0	0
170	-80	0	0
120	-75	0	0
120	-70	0	0
120	-65	0	0
120	-60	0	0
0	-85	0	0
0	-80	0	0
0	-75	0	0
0	-70	0	0
0	-65	0	0
0	-60	0	0
125	-75	0	0
125	-70	0	0
125	-65	0	0
125	-60	0	0
5	-85	0	0
5	-80	0	0
5	-75	0	0
5	-70	0	0
5	-65	0	0
5	-60	0	0
130	-75	0	0
130	-65	0	0
130	-70	0	0
10	-85	0	0
130	-60	0	0
10	-80	0	0
10	-75	0	0
10	-70	0	0
10	-65	0	0
10	-60	0	0
135	-75	0	0
135	-70	0	0
135	-65	0	0
135	-60	0	0
15	-85	0	0
15	-80	0	0
15	-75	0	0
15	-70	0	0
15	-65	0	0
15	-60	0	0
140	-75	0	0
140	-70	0	0
140	-65	0	0
140	-60	0	0
20	-85	0	0
20	-80	0	0
20	-75	0	0
20	-65	0	0
20	-70	0	0
20	-60	0	0
145	-75	0	0
145	-70	0	0
145	-65	0	0
25	-80	0	0
25	-85	0	0
145	-60	0	0
25	-75	0	0
25	-70	0	0
25	-65	0	0
25	-60	0	0
150	-75	0	0
150	-70	0	0
150	-65	0	0
150	-60	0	0
30	-85	0	0
30	-80	0	0
30	-75	0	0
30	-70	0	0
30	-65	0	0
30	-60	0	0
155	-75	0	0
155	-70	0	0
155	-65	0	0
155	-60	0	0
35	-85	0	0
35	-80	0	0
35	-75	0	0
35	-70	0	0
35	-65	0	0
35	-60	0	0
160	-75	0	0
160	-65	0	0
160	-70	0	0
160	-60	0	0
40	-85	0	0
40	-80	0	0
40	-75	0	0
40	-65	0	0
40	-70	0	0
40	-60	0	0
165	-75	0	0
165	-70	0	0
165	-60	0	0
165	-65	0	0
45	-85	0	0
45	-80	0	0
45	-75	0	0
45	-65	0	0
45	-70	0	0
45	-60	0	0
170	-75	0	0
170	-70	0	0
170	-65	0	0
170	-60	0	0
50	-75	0	0
50	-85	0	0
50	-80	0	0
50	-70	0	0
50	-65	0	0
50	-60	0	0
120	-85	0	0
125	-85	0	0
130	-85	0	0
135	-85	0	0
140	-85	0	0
145	-85	0	0
150	-85	0	0
155	-85	0	0
160	-85	0	0
165	-85	0	0
170	-85	0	0
-25	-72	0	0
75	-71.900000000000006	0	0
95	-71.299999999999997	0	0
195	-71.599999999999994	0	0
[NumSegments] = 460
0	11	-1	0	0	0
11	12	-1	0	0	0
12	13	-1	0	0	0
14	13	-1	0	0	0
20	19	-1	0	0	0
19	18	-1	0	0	0
17	16	-1	0	0	0
16	15	-1	0	0	0
30	29	-1	0	0	0
28	29	-1	0	0	0
20	30	-1	0	0	0
30	40	-1	0	0	0
40	50	-1	0	0	0
50	60	-1	0	0	0
60	70	-1	0	0	0
70	80	-1	0	0	0
80	79	-1	0	0	0
80	90	-1	0	0	0
90	100	-1	0	0	0
100	110	-1	0	0	0
110	120	-1	0	0	0
120	119	-1	0	0	0
119	108	-1	0	0	0
108	110	-1	0	0	0
108	98	-1	0	0	0
98	89	-1	0	0	0
90	89	-1	0	0	0
100	98	-1	0	0	0
89	79	-1	0	0	0
79	69	-1	0	0	0
58	49	-1	0	0	0
58	69	-1	0	0	0
69	70	-1	0	0	0
60	58	-1	0	0	0
50	49	-1	0	0	0
49	39	-1	0	0	0
39	40	-1	0	0	0
39	29	-1	0	0	0
38	39	-1	0	0	0
38	28	-1	0	0	0
28	18	-1	0	0	0
19	29	-1	0	0	0
37	27	-1	0	0	0
27	17	-1	0	0	0
27	26	-1	0	0	0
26	36	-1	0	0	0
36	37	-1	0	0	0
37	47	-1	0	0	0
26	16	-1	0	0	0
48	49	-1	0	0	0
48	59	-1	0	0	0
48	38	-1	0	0	0
108	109	-1	0	0	0
109	99	-1	0	0	0
97	87	-1	0	0	0
87	86	-1	0	0	0
86	76	-1	0	0	0
76	75	-1	0	0	0
75	65	-1	0	0	0
66	54	-1	0	0	0
54	53	-1	0	0	0
53	43	-1	0	0	0
42	43	-1	0	0	0
42	33	-1	0	0	0
33	31	-1	0	0	0
31	21	-1	0	0	0
21	1	-1	0	0	0
1	0	-1	0	0	0
21	11	-1	0	0	0
21	22	-1	0	0	0
22	33	-1	0	0	0
22	12	-1	0	0	0
22	23	-1	0	0	0
23	32	-1	0	0	0
32	43	-1	0	0	0
23	13	-1	0	0	0
32	33	-1	0	0	0
32	35	-1	0	0	0
43	44	-1	0	0	0
24	23	-1	0	0	0
24	35	-1	0	0	0
24	14	-1	0	0	0
35	44	-1	0	0	0
44	54	-1	0	0	0
55	56	-1	0	0	0
65	55	-1	0	0	0
55	45	-1	0	0	0
34	45	-1	0	0	0
34	36	-1	0	0	0
36	46	-1	0	0	0
46	45	-1	0	0	0
46	47	-1	0	0	0
34	25	-1	0	0	0
15	25	-1	0	0	0
46	56	-1	0	0	0
56	64	-1	0	0	0
65	64	-1	0	0	0
76	64	-1	0	0	0
64	67	-1	0	0	0
68	69	-1	0	0	0
68	59	-1	0	0	0
59	58	-1	0	0	0
56	57	-1	0	0	0
57	67	-1	0	0	0
57	47	-1	0	0	0
67	77	-1	0	0	0
78	88	-1	0	0	0
87	77	-1	0	0	0
77	76	-1	0	0	0
78	79	-1	0	0	0
78	68	-1	0	0	0
88	89	-1	0	0	0
88	99	-1	0	0	0
99	98	-1	0	0	0
109	118	-1	0	0	0
119	118	-1	0	0	0
1	2	-1	0	0	0
2	3	-1	0	0	0
3	4	-1	0	0	0
4	5	-1	0	0	0
5	6	-1	0	0	0
6	7	-1	0	0	0
7	8	-1	0	0	0
8	9	-1	0	0	0
9	10	-1	0	0	0
111	10	-1	0	0	0
111	101	-1	0	0	0
101	102	-1	0	0	0
102	93	-1	0	0	0
91	93	-1	0	0	0
91	81	-1	0	0	0
91	101	-1	0	0	0
81	71	-1	0	0	0
71	61	-1	0	0	0
61	51	-1	0	0	0
51	41	-1	0	0	0
41	31	-1	0	0	0
41	42	-1	0	0	0
41	3	-1	0	0	0
31	2	-1	0	0	0
51	4	-1	0	0	0
5	61	-1	0	0	0
62	61	-1	0	0	0
51	52	-1	0	0	0
6	71	-1	0	0	0
71	72	-1	0	0	0
82	81	-1	0	0	0
81	7	-1	0	0	0
91	8	-1	0	0	0
101	9	-1	0	0	0
111	112	-1	0	0	0
112	102	-1	0	0	0
93	82	-1	0	0	0
82	72	-1	0	0	0
72	62	-1	0	0	0
52	62	-1	0	0	0
52	42	-1	0	0	0
52	53	-1	0	0	0
62	63	-1	0	0	0
72	73	-1	0	0	0
74	73	-1	0	0	0
84	83	-1	0	0	0
83	82	-1	0	0	0
94	92	-1	0	0	0
92	93	-1	0	0	0
103	104	-1	0	0	0
104	102	-1	0	0	0
113	112	-1	0	0	0
113	114	-1	0	0	0
66	63	-1	0	0	0
66	74	-1	0	0	0
73	63	-1	0	0	0
63	53	-1	0	0	0
73	83	-1	0	0	0
74	84	-1	0	0	0
75	85	-1	0	0	0
85	95	-1	0	0	0
84	94	-1	0	0	0
83	92	-1	0	0	0
92	104	-1	0	0	0
104	113	-1	0	0	0
114	103	-1	0	0	0
103	94	-1	0	0	0
95	105	-1	0	0	0
105	116	-1	0	0	0
117	116	-1	0	0	0
106	105	-1	0	0	0
106	107	-1	0	0	0
117	115	-1	0	0	0
107	97	-1	0	0	0
107	115	-1	0	0	0
117	106	-1	0	0	0
106	96	-1	0	0	0
96	97	-1	0	0	0
96	86	-1	0	0	0
86	85	-1	0	0	0
96	95	-1	0	0	0
26	25	-1	0	0	0
0	121	-1	0	0	0
121	122	-1	0	0	0
122	1	-1	0	0	0
122	123	-1	0	0	0
123	2	-1	0	0	0
123	124	-1	0	0	0
124	125	-1	0	0	0
125	126	-1	0	0	0
126	5	-1	0	0	0
6	127	-1	0	0	0
127	128	-1	0	0	0
128	129	-1	0	0	0
129	130	-1	0	0	0
130	131	-1	0	0	0
131	10	-1	0	0	0
9	130	-1	0	0	0
8	129	-1	0	0	0
7	128	-1	0	0	0
127	126	-1	0	0	0
125	4	-1	0	0	0
3	124	-1	0	0	0
18	17	-1	0	0	0
27	28	-1	0	0	0
38	37	-1	0	0	0
47	48	-1	0	0	0
59	57	-1	0	0	0
67	68	-1	0	0	0
78	77	-1	0	0	0
88	87	-1	0	0	0
97	99	-1	0	0	0
109	107	-1	0	0	0
118	115	-1	0	0	0
136	147	-1	0	0	0
147	148	-1	0	0	0
148	149	-1	0	0	0
150	149	-1	0	0	0
156	155	-1	0	0	0
155	154	-1	0	0	0
153	152	-1	0	0	0
152	151	-1	0	0	0
166	165	-1	0	0	0
164	165	-1	0	0	0
156	166	-1	0	0	0
166	176	-1	0	0	0
176	186	-1	0	0	0
186	196	-1	0	0	0
196	206	-1	0	0	0
206	216	-1	0	0	0
216	215	-1	0	0	0
216	226	-1	0	0	0
226	236	-1	0	0	0
236	246	-1	0	0	0
246	256	-1	0	0	0
256	255	-1	0	0	0
255	244	-1	0	0	0
244	246	-1	0	0	0
244	234	-1	0	0	0
234	225	-1	0	0	0
226	225	-1	0	0	0
236	234	-1	0	0	0
225	215	-1	0	0	0
215	205	-1	0	0	0
194	185	-1	0	0	0
194	205	-1	0	0	0
205	206	-1	0	0	0
196	194	-1	0	0	0
186	185	-1	0	0	0
185	175	-1	0	0	0
175	176	-1	0	0	0
175	165	-1	0	0	0
174	175	-1	0	0	0
174	164	-1	0	0	0
164	154	-1	0	0	0
155	165	-1	0	0	0
173	163	-1	0	0	0
163	153	-1	0	0	0
163	162	-1	0	0	0
162	172	-1	0	0	0
172	173	-1	0	0	0
173	183	-1	0	0	0
162	152	-1	0	0	0
184	185	-1	0	0	0
184	195	-1	0	0	0
184	174	-1	0	0	0
244	245	-1	0	0	0
245	235	-1	0	0	0
233	223	-1	0	0	0
223	222	-1	0	0	0
222	212	-1	0	0	0
212	211	-1	0	0	0
211	201	-1	0	0	0
202	190	-1	0	0	0
190	189	-1	0	0	0
189	179	-1	0	0	0
178	179	-1	0	0	0
178	169	-1	0	0	0
169	167	-1	0	0	0
167	157	-1	0	0	0
157	137	-1	0	0	0
137	136	-1	0	0	0
157	147	-1	0	0	0
157	158	-1	0	0	0
158	169	-1	0	0	0
158	148	-1	0	0	0
158	159	-1	0	0	0
159	168	-1	0	0	0
168	179	-1	0	0	0
159	149	-1	0	0	0
168	169	-1	0	0	0
168	171	-1	0	0	0
179	180	-1	0	0	0
160	159	-1	0	0	0
160	171	-1	0	0	0
160	150	-1	0	0	0
171	180	-1	0	0	0
180	190	-1	0	0	0
191	192	-1	0	0	0
201	191	-1	0	0	0
191	181	-1	0	0	0
170	181	-1	0	0	0
170	172	-1	0	0	0
172	182	-1	0	0	0
182	181	-1	0	0	0
182	183	-1	0	0	0
170	161	-1	0	0	0
151	161	-1	0	0	0
182	192	-1	0	0	0
192	200	-1	0	0	0
201	200	-1	0	0	0
212	200	-1	0	0	0
200	203	-1	0	0	0
204	205	-1	0	0	0
204	195	-1	0	0	0
195	194	-1	0	0	0
192	193	-1	0	0	0
193	203	-1	0	0	0
193	183	-1	0	0	0
203	213	-1	0	0	0
214	224	-1	0	0	0
223	213	-1	0	0	0
213	212	-1	0	0	0
214	215	-1	0	0	0
214	204	-1	0	0	0
224	225	-1	0	0	0
224	235	-1	0	0	0
235	234	-1	0	0	0
245	254	-1	0	0	0
255	254	-1	0	0	0
137	138	-1	0	0	0
138	139	-1	0	0	0
139	140	-1	0	0	0
140	141	-1	0	0	0
141	142	-1	0	0	0
142	143	-1	0	0	0
143	144	-1	0	0	0
144	145	-1	0	0	0
145	146	-1	0	0	0
247	146	-1	0	0	0
247	237	-1	0	0	0
237	238	-1	0	0	0
238	229	-1	0	0	0
227	229	-1	0	0	0
227	217	-1	0	0	0
227	237	-1	0	0	0
217	207	-1	0	0	0
207	197	-1	0	0	0
197	187	-1	0	0	0
187	177	-1	0	0	0
177	167	-1	0	0	0
177	178	-1	0	0	0
177	139	-1	0	0	0
167	138	-1	0	0	0
187	140	-1	0	0	0
141	197	-1	0	0	0
198	197	-1	0	0	0
187	188	-1	0	0	0
142	207	-1	0	0	0
207	208	-1	0	0	0
218	217	-1	0	0	0
217	143	-1	0	0	0
227	144	-1	0	0	0
237	145	-1	0	0	0
247	248	-1	0	0	0
248	238	-1	0	0	0
229	218	-1	0	0	0
218	208	-1	0	0	0
208	198	-1	0	0	0
188	198	-1	0	0	0
188	178	-1	0	0	0
188	189	-1	0	0	0
198	199	-1	0	0	0
208	209	-1	0	0	0
210	209	-1	0	0	0
220	219	-1	0	0	0
219	218	-1	0	0	0
230	228	-1	0	0	0
228	229	-1	0	0	0
239	240	-1	0	0	0
240	238	-1	0	0	0
249	248	-1	0	0	0
249	250	-1	0	0	0
202	199	-1	0	0	0
202	210	-1	0	0	0
209	199	-1	0	0	0
199	189	-1	0	0	0
209	219	-1	0	0	0
210	220	-1	0	0	0
211	221	-1	0	0	0
221	231	-1	0	0	0
220	230	-1	0	0	0
219	228	-1	0	0	0
228	240	-1	0	0	0
240	249	-1	0	0	0
250	239	-1	0	0	0
239	230	-1	0	0	0
231	241	-1	0	0	0
241	252	-1	0	0	0
253	252	-1	0	0	0
242	241	-1	0	0	0
242	243	-1	0	0	0
253	251	-1	0	0	0
243	233	-1	0	0	0
243	251	-1	0	0	0
253	242	-1	0	0	0
242	232	-1	0	0	0
232	233	-1	0	0	0
232	222	-1	0	0	0
222	221	-1	0	0	0
232	231	-1	0	0	0
162	161	-1	0	0	0
136	257	-1	0	0	0
257	258	-1	0	0	0
258	137	-1	0	0	0
258	259	-1	0	0	0
259	138	-1	0	0	0
259	260	-1	0	0	0
260	261	-1	0	0	0
261	262	-1	0	0	0
262	141	-1	0	0	0
142	263	-1	0	0	0
263	264	-1	0	0	0
264	265	-1	0	0	0
265	266	-1	0	0	0
266	267	-1	0	0	0
267	146	-1	0	0	0
145	266	-1	0	0	0
144	265	-1	0	0	0
143	264	-1	0	0	0
263	262	-1	0	0	0
261	140	-1	0	0	0
139	260	-1	0	0	0
154	153	-1	0	0	0
163	164	-1	0	0	0
174	173	-1	0	0	0
183	184	-1	0	0	0
195	193	-1	0	0	0
203	204	-1	0	0	0
214	213	-1	0	0	0
224	223	-1	0	0	0
233	235	-1	0	0	0
245	243	-1	0	0	0
254	251	-1	0	0	0
[NumArcSegments] = 8
132	133	180	1	1	0	0	1
133	132	180	1	1	0	0	1
134	135	180	1	1	0	0	1
135	134	180	1	1	0	0	1
268	269	180	1	1	0	0	1
269	268	180	1	1	0	0	1
270	271	180	1	1	0	0	1
271	270	180	1	1	0	0	1
[NumHoles] = 0
[NumBlockLabels] = 204
2.5	47.700000000000003	1	-1	0	90	0	1	0
7.2000000000000002	47.600000000000001	1	-1	0	180	0	1	0
12.5	47.700000000000003	1	-1	0	-90	0	1	0
17.199999999999999	47.799999999999997	1	-1	0	0	0	1	0
22.5	47.700000000000003	1	-1	0	90	0	1	0
27.199999999999999	47.600000000000001	1	-1	0	180	0	1	0
32.5	47.700000000000003	1	-1	0	-90	0	1	0
37.200000000000003	47.799999999999997	1	-1	0	0	0	1	0
42.600000000000001	47.700000000000003	1	-1	0	90	0	1	0
47.299999999999997	47.700000000000003	1	-1	0	180	0	1	0
2.5	42.700000000000003	1	-1	0	90	0	1	0
7.2000000000000002	42.600000000000001	1	-1	0	180	0	1	0
12.5	42.700000000000003	1	-1	0	-90	0	1	0
17.199999999999999	42.799999999999997	1	-1	0	0	0	1	0
22.5	42.700000000000003	1	-1	0	90	0	1	0
27.199999999999999	42.600000000000001	1	-1	0	180	0	1	0
32.5	42.700000000000003	1	-1	0	-90	0	1	0
37.200000000000003	42.799999999999997	1	-1	0	0	0	1	0
42.600000000000001	42.700000000000003	1	-1	0	90	0	1	0
47.299999999999997	42.700000000000003	1	-1	0	180	0	1	0
2.5	37.700000000000003	1	-1	0	90	0	1	0
7.2000000000000002	37.600000000000001	1	-1	0	180	0	1	0
12.5	37.700000000000003	1	-1	0	-90	0	1	0
17.199999999999999	37.799999999999997	1	-1	0	0	0	1	0
22.5	37.700000000000003	1	-1	0	90	0	1	0
27.199999999999999	37.600000000000001	1	-1	0	180	0	1	0
32.5	37.700000000000003	1	-1	0	-90	0	1	0
37.200000000000003	37.799999999999997	1	-1	0	0	0	1	0
42.600000000000001	37.700000000000003	1	-1	0	90	0	1	0
47.299999999999997	37.700000000000003	1	-1	0	180	0	1	0
2.5	32.700000000000003	1	-1	0	90	0	1	0
7.2000000000000002	32.600000000000001	1	-1	0	180	0	1	0
12.5	32.700000000000003	1	-1	0	-90	0	1	0
17.199999999999999	32.799999999999997	1	-1	0	0	0	1	0
22.5	32.700000000000003	1	-1	0	90	0	1	0
27.199999999999999	32.600000000000001	1	-1	0	180	0	1	0
32.5	32.700000000000003	1	-1	0	-90	0	1	0
37.200000000000003	32.799999999999997	1	-1	0	0	0	1	0
42.600000000000001	32.700000000000003	1	-1	0	90	0	1	0
47.299999999999997	32.700000000000003	1	-1	0	180	0	1	0
2.5	27.700000000000003	1	-1	0	90	0	1	0
7.2000000000000002	27.600000000000001	1	-1	0	180	0	1	0
12.5	27.700000000000003	1	-1	0	-90	0	1	0
17.199999999999999	27.799999999999997	1	-1	0	0	0	1	0
22.5	27.700000000000003	1	-1	0	90	0	1	0
27.199999999999999	27.600000000000001	1	-1	0	180	0	1	0
32.5	27.700000000000003	1	-1	0	-90	0	1	0
37.200000000000003	27.799999999999997	1	-1	0	0	0	1	0
42.600000000000001	27.700000000000003	1	-1	0	90	0	1	0
47.299999999999997	27.700000000000003	1	-1	0	180	0	1	0
122.5	47.700000000000003	1	-1	0	90	0	1	0
127.2	47.600000000000001	1	-1	0	180	0	1	0
132.5	47.700000000000003	1	-1	0	-90	0	1	0
137.19999999999999	47.799999999999997	1	-1	0	0	0	1	0
142.5	47.700000000000003	1	-1	0	90	0	1	0
147.19999999999999	47.600000000000001	1	-1	0	180	0	1	0
152.5	47.700000000000003	1	-1	0	-90	0	1	0
157.19999999999999	47.799999999999997	1	-1	0	0	0	1	0
162.59999999999999	47.700000000000003	1	-1	0	90	0	1	0
167.30000000000001	47.700000000000003	1	-1	0	180	0	1	0
122.59999999999999	42.700000000000003	1	-1	0	-90	0	1	0
127.5	42.600000000000001	1	-1	0	180	0	1	0
132.30000000000001	42.700000000000003	1	-1	0	90	0	1	0
137.40000000000001	42.700000000000003	1	-1	0	0	0	1	0
142.59999999999999	42.700000000000003	1	-1	0	-90	0	1	0
147.5	42.600000000000001	1	-1	0	180	0	1	0
152.30000000000001	42.700000000000003	1	-1	0	90	0	1	0
157.40000000000001	42.700000000000003	1	-1	0	0	0	1	0
162.59999999999999	42.700000000000003	1	-1	0	-90	0	1	0
167.5	42.600000000000001	1	-1	0	180	0	1	0
122.5	37.700000000000003	1	-1	0	90	0	1	0
127.2	37.600000000000001	1	-1	0	180	0	1	0
132.5	37.700000000000003	1	-1	0	-90	0	1	0
137.19999999999999	37.799999999999997	1	-1	0	0	0	1	0
142.5	37.700000000000003	1	-1	0	90	0	1	0
147.19999999999999	37.600000000000001	1	-1	0	180	0	1	0
152.5	37.700000000000003	1	-1	0	-90	0	1	0
157.19999999999999	37.799999999999997	1	-1	0	0	0	1	0
162.59999999999999	37.700000000000003	1	-1	0	90	0	1	0
167.30000000000001	37.700000000000003	1	-1	0	180	0	1	0
122.59999999999999	32.700000000000003	1	-1	0	-90	0	1	0
127.5	32.600000000000001	1	-1	0	180	0	1	0
132.30000000000001	32.700000000000003	1	-1	0	90	0	1	0
137.40000000000001	32.700000000000003	1	-1	0	0	0	1	0
142.59999999999999	32.700000000000003	1	-1	0	-90	0	1	0
147.5	32.600000000000001	1	-1	0	180	0	1	0
152.30000000000001	32.700000000000003	1	-1	0	90	0	1	0
157.40000000000001	32.700000000000003	1	-1	0	0	0	1	0
162.59999999999999	32.700000000000003	1	-1	0	-90	0	1	0
167.5	32.600000000000001	1	-1	0	180	0	1	0
122.5	27.700000000000003	1	-1	0	90	0	1	0
127.2	27.600000000000001	1	-1	0	180	0	1	0
132.5	27.700000000000003	1	-1	0	-90	0	1	0
137.19999999999999	27.799999999999997	1	-1	0	0	0	1	0
142.5	27.700000000000003	1	-1	0	90	0	1	0
147.19999999999999	27.600000000000001	1	-1	0	180	0	1	0
152.5	27.700000000000003	1	-1	0	-90	0	1	0
157.19999999999999	27.799999999999997	1	-1	0	0	0	1	0
162.59999999999999	27.700000000000003	1	-1	0	90	0	1	0
167.30000000000001	27.700000000000003	1	-1	0	180	0	1	0
23.300000000000001	71.200000000000003	2	-1	0	0	0	1	0
147.59999999999999	73.200000000000003	2	-1	0	0	0	1	0
2.5	-62.299999999999997	1	-1	0	90	0	1	0
7.2000000000000002	-62.400000000000006	1	-1	0	180	0	1	0
12.5	-62.299999999999997	1	-1	0	-90	0	1	0
17.199999999999999	-62.200000000000003	1	-1	0	0	0	1	0
22.5	-62.299999999999997	1	-1	0	90	0	1	0
27.199999999999999	-62.400000000000006	1	-1	0	180	0	1	0
32.5	-62.299999999999997	1	-1	0	-90	0	1	0
37.200000000000003	-62.200000000000003	1	-1	0	0	0	1	0
42.600000000000001	-62.299999999999997	1	-1	0	90	0	1	0
47.299999999999997	-62.299999999999997	1	-1	0	180	0	1	0
2.5	-67.299999999999997	1	-1	0	90	0	1	0
7.2000000000000002	-67.400000000000006	1	-1	0	0	0	1	0
12.5	-67.299999999999997	1	-1	0	-90	0	1	0
17.199999999999999	-67.200000000000003	1	-1	0	180	0	1	0
22.5	-67.299999999999997	1	-1	0	90	0	1	0
27.199999999999999	-67.400000000000006	1	-1	0	0	0	1	0
32.5	-67.299999999999997	1	-1	0	-90	0	1	0
37.200000000000003	-67.200000000000003	1	-1	0	180	0	1	0
42.600000000000001	-67.299999999999997	1	-1	0	90	0	1	0
47.299999999999997	-67.299999999999997	1	-1	0	0	0	1	0
23.300000000000001	-38.799999999999997	2	-1	0	0	0	1	0
147.59999999999999	-36.799999999999997	2	-1	0	0	0	1	0
2.5	-72.299999999999997	1	-1	0	90	0	1	0
7.2000000000000002	-72.400000000000006	1	-1	0	180	0	1	0
12.5	-72.299999999999997	1	-1	0	-90	0	1	0
17.199999999999999	-72.200000000000003	1	-1	0	0	0	1	0
22.5	-72.299999999999997	1	-1	0	90	0	1	0
27.199999999999999	-72.400000000000006	1	-1	0	180	0	1	0
32.5	-72.299999999999997	1	-1	0	-90	0	1	0
37.200000000000003	-72.200000000000003	1	-1	0	0	0	1	0
42.600000000000001	-72.299999999999997	1	-1	0	90	0	1	0
47.299999999999997	-72.299999999999997	1	-1	0	180	0	1	0
2.5	-77.299999999999997	1	-1	0	90	0	1	0
7.2000000000000002	-77.400000000000006	1	-1	0	0	0	1	0
12.5	-77.299999999999997	1	-1	0	-90	0	1	0
17.199999999999999	-77.200000000000003	1	-1	0	180	0	1	0
22.5	-77.299999999999997	1	-1	0	90	0	1	0
27.199999999999999	-77.400000000000006	1	-1	0	0	0	1	0
32.5	-77.299999999999997	1	-1	0	-90	0	1	0
37.200000000000003	-77.200000000000003	1	-1	0	180	0	1	0
42.600000000000001	-77.299999999999997	1	-1	0	90	0	1	0
47.299999999999997	-77.299999999999997	1	-1	0	0	0	1	0
2.5	-82.299999999999997	1	-1	0	90	0	1	0
7.2000000000000002	-82.400000000000006	1	-1	0	180	0	1	0
12.5	-82.299999999999997	1	-1	0	-90	0	1	0
17.199999999999999	-82.200000000000003	1	-1	0	0	0	1	0
22.5	-82.299999999999997	1	-1	0	90	0	1	0
27.199999999999999	-82.400000000000006	1	-1	0	180	0	1	0
32.5	-82.299999999999997	1	-1	0	-90	0	1	0
37.200000000000003	-82.200000000000003	1	-1	0	0	0	1	0
42.600000000000001	-82.299999999999997	1	-1	0	90	0	1	0
47.299999999999997	-82.299999999999997	1	-1	0	180	0	1	0
122.5	-62.299999999999997	1	-1	0	90	0	1	0
127.2	-62.400000000000006	1	-1	0	180	0	1	0
132.5	-62.299999999999997	1	-1	0	-90	0	1	0
137.19999999999999	-62.200000000000003	1	-1	0	0	0	1	0
142.5	-62.299999999999997	1	-1	0	90	0	1	0
147.19999999999999	-62.400000000000006	1	-1	0	180	0	1	0
152.5	-62.299999999999997	1	-1	0	-90	0	1	0
157.19999999999999	-62.200000000000003	1	-1	0	0	0	1	0
162.59999999999999	-62.299999999999997	1	-1	0	90	0	1	0
167.30000000000001	-62.299999999999997	1	-1	0	180	0	1	0
122.5	-67.299999999999997	1	-1	0	-90	0	1	0
127.19999999999999	-67.200000000000003	1	-1	0	0	0	1	0
132.5	-67.299999999999997	1	-1	0	90	0	1	0
137.19999999999999	-67.400000000000006	1	-1	0	180	0	1	0
142.5	-67.299999999999997	1	-1	0	-90	0	1	0
147.19999999999999	-67.200000000000003	1	-1	0	0	0	1	0
152.59999999999999	-67.299999999999997	1	-1	0	90	0	1	0
157.30000000000001	-67.299999999999997	1	-1	0	180	0	1	0
162.5	-67.299999999999997	1	-1	0	-90	0	1	0
167.19999999999999	-67.200000000000003	1	-1	0	0	0	1	0
122.5	-72.299999999999997	1	-1	0	90	0	1	0
127.2	-72.400000000000006	1	-1	0	180	0	1	0
132.5	-72.299999999999997	1	-1	0	-90	0	1	0
137.19999999999999	-72.200000000000003	1	-1	0	0	0	1	0
142.5	-72.299999999999997	1	-1	0	90	0	1	0
147.19999999999999	-72.400000000000006	1	-1	0	180	0	1	0
152.5	-72.299999999999997	1	-1	0	-90	0	1	0
157.19999999999999	-72.200000000000003	1	-1	0	0	0	1	0
162.59999999999999	-72.299999999999997	1	-1	0	90	0	1	0
167.30000000000001	-72.299999999999997	1	-1	0	180	0	1	0
122.5	-77.299999999999997	1	-1	0	-90	0	1	0
127.19999999999999	-77.200000000000003	1	-1	0	0	0	1	0
132.5	-77.299999999999997	1	-1	0	90	0	1	0
137.19999999999999	-77.400000000000006	1	-1	0	180	0	1	0
142.5	-77.299999999999997	1	-1	0	-90	0	1	0
147.19999999999999	-77.200000000000003	1	-1	0	0	0	1	0
152.59999999999999	-77.299999999999997	1	-1	0	90	0	1	0
157.30000000000001	-77.299999999999997	1	-1	0	180	0	1	0
162.5	-77.299999999999997	1	-1	0	-90	0	1	0
167.19999999999999	-77.200000000000003	1	-1	0	0	0	1	0
122.5	-82.299999999999997	1	-1	0	90	0	1	0
127.2	-82.400000000000006	1	-1	0	180	0	1	0
132.5	-82.299999999999997	1	-1	0	-90	0	1	0
137.19999999999999	-82.200000000000003	1	-1	0	0	0	1	0
142.5	-82.299999999999997	1	-1	0	90	0	1	0
147.19999999999999	-82.400000000000006	1	-1	0	180	0	1	0
152.5	-82.299999999999997	1	-1	0	-90	0	1	0
157.19999999999999	-82.200000000000003	1	-1	0	0	0	1	0
162.59999999999999	-82.299999999999997	1	-1	0	90	0	1	0
167.30000000000001	-82.299999999999997	1	-1	0	180	0	1	0
