[Format]      =  4.0
[Frequency]   =  0
[Precision]   =  1e-008
[MinAngle]    =  30
[DoSmartMesh] =  1
[Depth]       =  5
[LengthUnits] =  inches
[ProblemType] =  planar
[Coordinates] =  cartesian
[ACSolver]    =  0
[PrevType]    =  0
[PrevSoln]    =  ""
[Comment]     =  "Add comments here."
[PointProps]   = 0
[BdryProps]   = 1
  <BeginBdry>
    <BdryName> = "bound_condn"
    <BdryType> = 2
    <A_0> = 0
    <A_1> = 0
    <A_2> = 0
    <Phi> = 0
    <c0> = 31329713.207066011
    <c0i> = 0
    <c1> = 0
    <c1i> = 0
    <Mu_ssd> = 0
    <Sigma_ssd> = 0
    <innerangle> = 0
    <outerangle> = 0
  <EndBdry>
[BlockProps]  = 2
  <BeginBlock>
    <BlockName> = "m"
    <Mu_x> = 1.05
    <Mu_y> = 1.05
    <H_c> = 1006582.16453601
    <H_cAngle> = 0
    <J_re> = 0
    <J_im> = 0
    <Sigma> = 0
    <d_lam> = 0
    <Phi_h> = 0
    <Phi_hx> = 0
    <Phi_hy> = 0
    <LamType> = 0
    <LamFill> = 1
    <NStrands> = 0
    <WireD> = 0
    <BHPoints> = 0
  <EndBlock>
  <BeginBlock>
    <BlockName> = "air"
    <Mu_x> = 1
    <Mu_y> = 1
    <H_c> = 0
    <H_cAngle> = 0
    <J_re> = 0
    <J_im> = 0
    <Sigma> = 0
    <d_lam> = 0
    <Phi_h> = 0
    <Phi_hx> = 0
    <Phi_hy> = 0
    <LamType> = 0
    <LamFill> = 1
    <NStrands> = 0
    <WireD> = 0
    <BHPoints> = 0
  <EndBlock>
[CircuitProps]  = 0
[NumPoints] = 136
0	25	0	0
0	30	0	0
0	35	0	0
0	40	0	0
0	45	0	0
0	50	0	0
5	25	0	0
5	30	0	0
5	35	0	0
5	40	0	0
5	45	0	0
5	50	0	0
10	25	0	0
10	30	0	0
10	35	0	0
10	40	0	0
10	45	0	0
10	50	0	0
15	25	0	0
15	30	0	0
15	35	0	0
15	40	0	0
15	45	0	0
15	50	0	0
20	25	0	0
20	30	0	0
20	35	0	0
20	45	0	0
20	40	0	0
20	50	0	0
25	30	0	0
25	25	0	0
25	35	0	0
25	40	0	0
25	45	0	0
25	50	0	0
30	25	0	0
30	30	0	0
30	35	0	0
30	40	0	0
30	45	0	0
30	50	0	0
35	25	0	0
35	30	0	0
35	35	0	0
35	40	0	0
35	45	0	0
35	50	0	0
40	25	0	0
40	30	0	0
40	35	0	0
40	45	0	0
40	40	0	0
40	50	0	0
45	25	0	0
45	30	0	0
45	35	0	0
45	45	0	0
45	40	0	0
45	50	0	0
50	35	0	0
50	25	0	0
50	30	0	0
50	40	0	0
50	45	0	0
50	50	0	0
150	25	0	0
150	30	0	0
150	35	0	0
150	40	0	0
150	45	0	0
150	50	0	0
155	25	0	0
155	30	0	0
155	35	0	0
155	40	0	0
155	45	0	0
155	50	0	0
160	25	0	0
160	30	0	0
160	35	0	0
160	40	0	0
160	45	0	0
160	50	0	0
165	25	0	0
165	30	0	0
165	35	0	0
165	40	0	0
165	45	0	0
165	50	0	0
170	25	0	0
170	30	0	0
170	35	0	0
170	45	0	0
170	40	0	0
170	50	0	0
175	30	0	0
175	25	0	0
175	35	0	0
175	40	0	0
175	45	0	0
175	50	0	0
180	25	0	0
180	30	0	0
180	35	0	0
180	40	0	0
180	45	0	0
180	50	0	0
185	25	0	0
185	30	0	0
185	35	0	0
185	40	0	0
185	45	0	0
185	50	0	0
190	25	0	0
190	30	0	0
190	35	0	0
190	45	0	0
190	40	0	0
190	50	0	0
195	25	0	0
195	30	0	0
195	35	0	0
195	45	0	0
195	40	0	0
195	50	0	0
200	35	0	0
200	25	0	0
200	30	0	0
200	40	0	0
200	45	0	0
200	50	0	0
-30	37.5	0	0
80	37.5	0	0
120	37.5	0	0
230	37.5	0	0
[NumSegments] = 230
5	4	-1	0	0	0
4	3	-1	0	0	0
3	2	-1	0	0	0
2	1	-1	0	0	0
1	0	-1	0	0	0
11	10	-1	0	0	0
9	10	-1	0	0	0
5	11	-1	0	0	0
11	17	-1	0	0	0
17	23	-1	0	0	0
23	29	-1	0	0	0
29	35	-1	0	0	0
35	41	-1	0	0	0
41	40	-1	0	0	0
41	47	-1	0	0	0
47	53	-1	0	0	0
53	59	-1	0	0	0
59	65	-1	0	0	0
65	64	-1	0	0	0
64	57	-1	0	0	0
57	59	-1	0	0	0
57	51	-1	0	0	0
51	46	-1	0	0	0
47	46	-1	0	0	0
53	51	-1	0	0	0
46	40	-1	0	0	0
40	34	-1	0	0	0
27	22	-1	0	0	0
27	34	-1	0	0	0
34	35	-1	0	0	0
29	27	-1	0	0	0
23	22	-1	0	0	0
22	16	-1	0	0	0
16	17	-1	0	0	0
16	10	-1	0	0	0
15	16	-1	0	0	0
15	9	-1	0	0	0
9	3	-1	0	0	0
4	10	-1	0	0	0
9	8	-1	0	0	0
14	15	-1	0	0	0
14	8	-1	0	0	0
8	2	-1	0	0	0
8	7	-1	0	0	0
7	13	-1	0	0	0
13	14	-1	0	0	0
14	20	-1	0	0	0
7	1	-1	0	0	0
20	21	-1	0	0	0
21	22	-1	0	0	0
21	28	-1	0	0	0
21	15	-1	0	0	0
57	58	-1	0	0	0
58	52	-1	0	0	0
52	50	-1	0	0	0
50	44	-1	0	0	0
44	43	-1	0	0	0
43	37	-1	0	0	0
37	36	-1	0	0	0
36	31	-1	0	0	0
24	25	-1	0	0	0
31	24	-1	0	0	0
24	18	-1	0	0	0
12	18	-1	0	0	0
12	13	-1	0	0	0
13	19	-1	0	0	0
19	18	-1	0	0	0
19	20	-1	0	0	0
12	6	-1	0	0	0
0	6	-1	0	0	0
19	25	-1	0	0	0
25	30	-1	0	0	0
31	30	-1	0	0	0
37	30	-1	0	0	0
30	32	-1	0	0	0
32	33	-1	0	0	0
33	34	-1	0	0	0
33	28	-1	0	0	0
28	27	-1	0	0	0
28	26	-1	0	0	0
25	26	-1	0	0	0
26	32	-1	0	0	0
26	20	-1	0	0	0
32	38	-1	0	0	0
39	38	-1	0	0	0
39	45	-1	0	0	0
45	44	-1	0	0	0
44	38	-1	0	0	0
38	37	-1	0	0	0
39	40	-1	0	0	0
39	33	-1	0	0	0
45	46	-1	0	0	0
45	52	-1	0	0	0
52	51	-1	0	0	0
58	63	-1	0	0	0
64	63	-1	0	0	0
36	42	-1	0	0	0
42	48	-1	0	0	0
48	54	-1	0	0	0
54	61	-1	0	0	0
62	61	-1	0	0	0
55	54	-1	0	0	0
55	56	-1	0	0	0
62	60	-1	0	0	0
60	63	-1	0	0	0
58	56	-1	0	0	0
56	50	-1	0	0	0
56	60	-1	0	0	0
62	55	-1	0	0	0
55	49	-1	0	0	0
49	50	-1	0	0	0
49	43	-1	0	0	0
43	42	-1	0	0	0
49	48	-1	0	0	0
7	6	-1	0	0	0
71	70	-1	0	0	0
70	69	-1	0	0	0
69	68	-1	0	0	0
68	67	-1	0	0	0
67	66	-1	0	0	0
77	76	-1	0	0	0
75	76	-1	0	0	0
71	77	-1	0	0	0
77	83	-1	0	0	0
83	89	-1	0	0	0
89	95	-1	0	0	0
95	101	-1	0	0	0
101	107	-1	0	0	0
107	106	-1	0	0	0
107	113	-1	0	0	0
113	119	-1	0	0	0
119	125	-1	0	0	0
125	131	-1	0	0	0
131	130	-1	0	0	0
130	123	-1	0	0	0
123	125	-1	0	0	0
123	117	-1	0	0	0
117	112	-1	0	0	0
113	112	-1	0	0	0
119	117	-1	0	0	0
112	106	-1	0	0	0
106	100	-1	0	0	0
93	88	-1	0	0	0
93	100	-1	0	0	0
100	101	-1	0	0	0
95	93	-1	0	0	0
89	88	-1	0	0	0
88	82	-1	0	0	0
82	83	-1	0	0	0
82	76	-1	0	0	0
81	82	-1	0	0	0
81	75	-1	0	0	0
75	69	-1	0	0	0
70	76	-1	0	0	0
75	74	-1	0	0	0
80	81	-1	0	0	0
80	74	-1	0	0	0
74	68	-1	0	0	0
74	73	-1	0	0	0
73	79	-1	0	0	0
79	80	-1	0	0	0
80	86	-1	0	0	0
73	67	-1	0	0	0
86	87	-1	0	0	0
87	88	-1	0	0	0
87	94	-1	0	0	0
87	81	-1	0	0	0
123	124	-1	0	0	0
124	118	-1	0	0	0
118	116	-1	0	0	0
116	110	-1	0	0	0
110	109	-1	0	0	0
109	103	-1	0	0	0
103	102	-1	0	0	0
102	97	-1	0	0	0
90	91	-1	0	0	0
97	90	-1	0	0	0
90	84	-1	0	0	0
78	84	-1	0	0	0
78	79	-1	0	0	0
79	85	-1	0	0	0
85	84	-1	0	0	0
85	86	-1	0	0	0
78	72	-1	0	0	0
66	72	-1	0	0	0
85	91	-1	0	0	0
91	96	-1	0	0	0
97	96	-1	0	0	0
103	96	-1	0	0	0
96	98	-1	0	0	0
98	99	-1	0	0	0
99	100	-1	0	0	0
99	94	-1	0	0	0
94	93	-1	0	0	0
94	92	-1	0	0	0
91	92	-1	0	0	0
92	98	-1	0	0	0
92	86	-1	0	0	0
98	104	-1	0	0	0
105	104	-1	0	0	0
105	111	-1	0	0	0
111	110	-1	0	0	0
110	104	-1	0	0	0
104	103	-1	0	0	0
105	106	-1	0	0	0
105	99	-1	0	0	0
111	112	-1	0	0	0
111	118	-1	0	0	0
118	117	-1	0	0	0
124	129	-1	0	0	0
130	129	-1	0	0	0
102	108	-1	0	0	0
108	114	-1	0	0	0
114	120	-1	0	0	0
120	127	-1	0	0	0
128	127	-1	0	0	0
121	120	-1	0	0	0
121	122	-1	0	0	0
128	126	-1	0	0	0
126	129	-1	0	0	0
124	122	-1	0	0	0
122	116	-1	0	0	0
122	126	-1	0	0	0
128	121	-1	0	0	0
121	115	-1	0	0	0
115	116	-1	0	0	0
115	109	-1	0	0	0
109	108	-1	0	0	0
115	114	-1	0	0	0
73	72	-1	0	0	0
[NumArcSegments] = 4
132	133	180	1	1	0	0	1
133	132	180	1	1	0	0	1
134	135	180	1	1	0	0	1
135	134	180	1	1	0	0	1
[NumHoles] = 0
[NumBlockLabels] = 102
2.2999999999999998	47.700000000000003	1	-1	0	-90	0	1	0
7.2000000000000002	47.5	1	-1	0	180	0	1	0
12.4	47.5	1	-1	0	-90	0	1	0
17.100000000000001	47.700000000000003	1	-1	0	0	0	1	0
22.300000000000001	47.700000000000003	1	-1	0	-90	0	1	0
27.199999999999999	47.5	1	-1	0	180	0	1	0
32.399999999999999	47.5	1	-1	0	-90	0	1	0
37.100000000000001	47.700000000000003	1	-1	0	0	0	1	0
42.299999999999997	47.700000000000003	1	-1	0	-90	0	1	0
47.200000000000003	47.5	1	-1	0	180	0	1	0
2.2999999999999998	42.700000000000003	1	-1	0	-90	0	1	0
7.2000000000000002	42.5	1	-1	0	180	0	1	0
12.4	42.5	1	-1	0	-90	0	1	0
17.100000000000001	42.700000000000003	1	-1	0	0	0	1	0
22.300000000000001	42.700000000000003	1	-1	0	-90	0	1	0
27.199999999999999	42.5	1	-1	0	180	0	1	0
32.399999999999999	42.5	1	-1	0	-90	0	1	0
37.100000000000001	42.700000000000003	1	-1	0	0	0	1	0
42.299999999999997	42.700000000000003	1	-1	0	-90	0	1	0
47.200000000000003	42.5	1	-1	0	180	0	1	0
2.5	37.799999999999997	1	-1	0	90	0	1	0
7.5999999999999996	38	1	-1	0	0	0	1	0
12.699999999999999	38	1	-1	0	90	0	1	0
17.5	37.799999999999997	1	-1	0	180	0	1	0
22.5	37.799999999999997	1	-1	0	90	0	1	0
27.600000000000001	38	1	-1	0	0	0	1	0
32.700000000000003	38	1	-1	0	90	0	1	0
37.5	37.799999999999997	1	-1	0	180	0	1	0
42.5	37.799999999999997	1	-1	0	90	0	1	0
47.600000000000001	38	1	-1	0	0	0	1	0
2.5	32.799999999999997	1	-1	0	90	0	1	0
7.5999999999999996	33	1	-1	0	0	0	1	0
12.699999999999999	33	1	-1	0	90	0	1	0
17.5	32.799999999999997	1	-1	0	180	0	1	0
22.5	32.799999999999997	1	-1	0	90	0	1	0
27.600000000000001	33	1	-1	0	0	0	1	0
32.700000000000003	33	1	-1	0	90	0	1	0
37.5	32.799999999999997	1	-1	0	180	0	1	0
42.5	32.799999999999997	1	-1	0	90	0	1	0
47.600000000000001	33	1	-1	0	0	0	1	0
2.2999999999999998	27.700000000000003	1	-1	0	-90	0	1	0
7.2000000000000002	27.5	1	-1	0	180	0	1	0
12.4	27.5	1	-1	0	-90	0	1	0
17.100000000000001	27.700000000000003	1	-1	0	0	0	1	0
22.300000000000001	27.700000000000003	1	-1	0	-90	0	1	0
27.199999999999999	27.5	1	-1	0	180	0	1	0
32.399999999999999	27.5	1	-1	0	-90	0	1	0
37.100000000000001	27.700000000000003	1	-1	0	0	0	1	0
42.299999999999997	27.700000000000003	1	-1	0	-90	0	1	0
47.200000000000003	27.5	1	-1	0	180	0	1	0
152.30000000000001	47.700000000000003	1	-1	0	180	0	1	0
157.19999999999999	47.5	1	-1	0	180	0	1	0
162.40000000000001	47.5	1	-1	0	0	0	1	0
167.09999999999999	47.700000000000003	1	-1	0	0	0	1	0
152.30000000000001	42.700000000000003	1	-1	0	-90	0	1	0
157.19999999999999	42.5	1	-1	0	-90	0	1	0
162.40000000000001	42.5	1	-1	0	90	0	1	0
167.09999999999999	42.700000000000003	1	-1	0	90	0	1	0
172.30000000000001	47.700000000000003	1	-1	0	180	0	1	0
177.19999999999999	47.5	1	-1	0	180	0	1	0
182.40000000000001	47.5	1	-1	0	0	0	1	0
187.09999999999999	47.700000000000003	1	-1	0	0	0	1	0
192.30000000000001	47.700000000000003	1	-1	0	180	0	1	0
197.19999999999999	47.5	1	-1	0	180	0	1	0
172.30000000000001	42.700000000000003	1	-1	0	-90	0	1	0
177.19999999999999	42.5	1	-1	0	-90	0	1	0
182.40000000000001	42.5	1	-1	0	90	0	1	0
187.09999999999999	42.700000000000003	1	-1	0	90	0	1	0
192.30000000000001	42.700000000000003	1	-1	0	-90	0	1	0
197.19999999999999	42.5	1	-1	0	-90	0	1	0
152.30000000000001	37.700000000000003	1	-1	0	180	0	1	0
157.19999999999999	37.5	1	-1	0	180	0	1	0
162.40000000000001	37.5	1	-1	0	0	0	1	0
167.09999999999999	37.700000000000003	1	-1	0	0	0	1	0
172.30000000000001	37.700000000000003	1	-1	0	180	0	1	0
177.19999999999999	37.5	1	-1	0	180	0	1	0
182.40000000000001	37.5	1	-1	0	0	0	1	0
187.09999999999999	37.700000000000003	1	-1	0	0	0	1	0
192.30000000000001	37.700000000000003	1	-1	0	180	0	1	0
197.19999999999999	37.5	1	-1	0	180	0	1	0
152.40000000000001	32.5	1	-1	0	90	0	1	0
157.09999999999999	32.700000000000003	1	-1	0	90	0	1	0
162.30000000000001	32.700000000000003	1	-1	0	-90	0	1	0
167.19999999999999	32.5	1	-1	0	-90	0	1	0
172.40000000000001	32.5	1	-1	0	90	0	1	0
177.09999999999999	32.700000000000003	1	-1	0	90	0	1	0
182.30000000000001	32.700000000000003	1	-1	0	-90	0	1	0
187.19999999999999	32.5	1	-1	0	-90	0	1	0
192.40000000000001	32.5	1	-1	0	90	0	1	0
197.09999999999999	32.700000000000003	1	-1	0	90	0	1	0
152.30000000000001	27.700000000000003	1	-1	0	180	0	1	0
157.19999999999999	27.5	1	-1	0	180	0	1	0
162.40000000000001	27.5	1	-1	0	0	0	1	0
167.09999999999999	27.700000000000003	1	-1	0	0	0	1	0
172.30000000000001	27.700000000000003	1	-1	0	180	0	1	0
177.19999999999999	27.5	1	-1	0	180	0	1	0
182.40000000000001	27.5	1	-1	0	0	0	1	0
187.09999999999999	27.700000000000003	1	-1	0	0	0	1	0
192.30000000000001	27.700000000000003	1	-1	0	180	0	1	0
197.19999999999999	27.5	1	-1	0	180	0	1	0
175.30000000000001	73.799999999999997	2	-1	0	0	0	1	0
24.699999999999999	74.799999999999997	2	-1	0	0	0	1	0
