[Format]      =  4.0
[Frequency]   =  0
[Precision]   =  1e-008
[MinAngle]    =  30
[DoSmartMesh] =  1
[Depth]       =  5
[LengthUnits] =  millimeters
[ProblemType] =  planar
[Coordinates] =  cartesian
[ACSolver]    =  0
[PrevType]    =  0
[PrevSoln]    =  ""
[Comment]     =  "Add comments here."
[PointProps]   = 0
[BdryProps]   = 1
  <BeginBdry>
    <BdryName> = "bound_cond"
    <BdryType> = 2
    <A_0> = 0
    <A_1> = 0
    <A_2> = 0
    <Phi> = 0
    <c0> = 31329713.207066011
    <c0i> = 0
    <c1> = 0
    <c1i> = 0
    <Mu_ssd> = 0
    <Sigma_ssd> = 0
    <innerangle> = 0
    <outerangle> = 0
  <EndBdry>
[BlockProps]  = 2
  <BeginBlock>
    <BlockName> = "m"
    <Mu_x> = 1.05
    <Mu_y> = 1.05
    <H_c> = 1006582.16453601
    <H_cAngle> = 0
    <J_re> = 0
    <J_im> = 0
    <Sigma> = 0
    <d_lam> = 0
    <Phi_h> = 0
    <Phi_hx> = 0
    <Phi_hy> = 0
    <LamType> = 0
    <LamFill> = 1
    <NStrands> = 0
    <WireD> = 0
    <BHPoints> = 0
  <EndBlock>
  <BeginBlock>
    <BlockName> = "air"
    <Mu_x> = 1
    <Mu_y> = 1
    <H_c> = 0
    <H_cAngle> = 0
    <J_re> = 0
    <J_im> = 0
    <Sigma> = 0
    <d_lam> = 0
    <Phi_h> = 0
    <Phi_hx> = 0
    <Phi_hy> = 0
    <LamType> = 0
    <LamFill> = 1
    <NStrands> = 0
    <WireD> = 0
    <BHPoints> = 0
  <EndBlock>
[CircuitProps]  = 0
[NumPoints] = 123
0	0	0	0
5	0	0	0
10	0	0	0
15	0	0	0
20	0	0	0
25	0	0	0
30	0	0	0
35	0	0	0
40	0	0	0
45	0	0	0
50	0	0	0
0	5	0	0
0	10	0	0
0	15	0	0
0	20	0	0
0	25	0	0
0	30	0	0
0	35	0	0
0	40	0	0
0	45	0	0
0	50	0	0
5	5	0	0
5	10	0	0
5	15	0	0
5	20	0	0
5	25	0	0
5	30	0	0
5	35	0	0
5	40	0	0
5	45	0	0
5	50	0	0
10	5	0	0
10	15	0	0
10	10	0	0
10	25	0	0
10	20	0	0
10	30	0	0
10	35	0	0
10	40	0	0
10	45	0	0
10	50	0	0
15	5	0	0
15	10	0	0
15	15	0	0
15	20	0	0
15	25	0	0
15	30	0	0
15	35	0	0
15	40	0	0
15	45	0	0
15	50	0	0
20	5	0	0
20	10	0	0
20	15	0	0
20	20	0	0
20	25	0	0
20	30	0	0
20	35	0	0
20	45	0	0
20	40	0	0
20	50	0	0
25	5	0	0
25	10	0	0
25	15	0	0
25	30	0	0
25	25	0	0
25	20	0	0
25	35	0	0
25	40	0	0
25	45	0	0
25	50	0	0
30	5	0	0
30	10	0	0
30	15	0	0
30	20	0	0
30	25	0	0
30	30	0	0
30	35	0	0
30	40	0	0
30	45	0	0
30	50	0	0
35	5	0	0
35	10	0	0
35	15	0	0
35	20	0	0
35	25	0	0
35	30	0	0
35	35	0	0
35	40	0	0
35	45	0	0
35	50	0	0
40	5	0	0
40	15	0	0
40	10	0	0
40	20	0	0
40	25	0	0
40	30	0	0
40	35	0	0
40	45	0	0
40	40	0	0
40	50	0	0
45	5	0	0
45	10	0	0
45	20	0	0
45	15	0	0
45	25	0	0
45	30	0	0
45	35	0	0
45	45	0	0
45	40	0	0
45	50	0	0
50	5	0	0
50	10	0	0
50	15	0	0
50	20	0	0
50	35	0	0
50	25	0	0
50	30	0	0
50	40	0	0
50	45	0	0
50	50	0	0
-30	25	0	0
80	25	0	0
[NumSegments] = 220
0	11	-1	0	0	0
11	12	-1	0	0	0
12	13	-1	0	0	0
14	13	-1	0	0	0
20	19	-1	0	0	0
19	18	-1	0	0	0
18	17	-1	0	0	0
17	16	-1	0	0	0
16	15	-1	0	0	0
15	14	-1	0	0	0
30	29	-1	0	0	0
28	29	-1	0	0	0
20	30	-1	0	0	0
30	40	-1	0	0	0
40	50	-1	0	0	0
50	60	-1	0	0	0
60	70	-1	0	0	0
70	80	-1	0	0	0
80	79	-1	0	0	0
80	90	-1	0	0	0
90	100	-1	0	0	0
100	110	-1	0	0	0
110	120	-1	0	0	0
120	119	-1	0	0	0
119	108	-1	0	0	0
108	110	-1	0	0	0
108	98	-1	0	0	0
98	89	-1	0	0	0
90	89	-1	0	0	0
100	98	-1	0	0	0
89	79	-1	0	0	0
79	69	-1	0	0	0
58	49	-1	0	0	0
58	69	-1	0	0	0
69	70	-1	0	0	0
60	58	-1	0	0	0
50	49	-1	0	0	0
49	39	-1	0	0	0
39	40	-1	0	0	0
39	29	-1	0	0	0
38	39	-1	0	0	0
38	28	-1	0	0	0
28	18	-1	0	0	0
19	29	-1	0	0	0
28	27	-1	0	0	0
37	38	-1	0	0	0
37	27	-1	0	0	0
27	17	-1	0	0	0
27	26	-1	0	0	0
26	36	-1	0	0	0
36	37	-1	0	0	0
37	47	-1	0	0	0
26	16	-1	0	0	0
47	48	-1	0	0	0
48	49	-1	0	0	0
48	59	-1	0	0	0
48	38	-1	0	0	0
108	109	-1	0	0	0
109	99	-1	0	0	0
99	97	-1	0	0	0
97	87	-1	0	0	0
87	86	-1	0	0	0
86	76	-1	0	0	0
76	75	-1	0	0	0
75	65	-1	0	0	0
65	66	-1	0	0	0
66	54	-1	0	0	0
54	53	-1	0	0	0
53	43	-1	0	0	0
42	43	-1	0	0	0
42	33	-1	0	0	0
33	31	-1	0	0	0
31	21	-1	0	0	0
21	1	-1	0	0	0
1	0	-1	0	0	0
21	11	-1	0	0	0
21	22	-1	0	0	0
22	33	-1	0	0	0
22	12	-1	0	0	0
22	23	-1	0	0	0
23	32	-1	0	0	0
32	43	-1	0	0	0
23	13	-1	0	0	0
32	33	-1	0	0	0
32	35	-1	0	0	0
43	44	-1	0	0	0
24	23	-1	0	0	0
24	35	-1	0	0	0
24	14	-1	0	0	0
35	44	-1	0	0	0
44	54	-1	0	0	0
54	55	-1	0	0	0
55	56	-1	0	0	0
65	55	-1	0	0	0
55	45	-1	0	0	0
34	45	-1	0	0	0
34	36	-1	0	0	0
36	46	-1	0	0	0
46	45	-1	0	0	0
46	47	-1	0	0	0
34	25	-1	0	0	0
15	25	-1	0	0	0
25	24	-1	0	0	0
35	34	-1	0	0	0
45	44	-1	0	0	0
46	56	-1	0	0	0
56	64	-1	0	0	0
65	64	-1	0	0	0
76	64	-1	0	0	0
64	67	-1	0	0	0
67	68	-1	0	0	0
68	69	-1	0	0	0
68	59	-1	0	0	0
59	58	-1	0	0	0
59	57	-1	0	0	0
56	57	-1	0	0	0
57	67	-1	0	0	0
57	47	-1	0	0	0
67	77	-1	0	0	0
78	77	-1	0	0	0
78	88	-1	0	0	0
88	87	-1	0	0	0
87	77	-1	0	0	0
77	76	-1	0	0	0
78	79	-1	0	0	0
78	68	-1	0	0	0
88	89	-1	0	0	0
88	99	-1	0	0	0
99	98	-1	0	0	0
109	118	-1	0	0	0
119	118	-1	0	0	0
1	2	-1	0	0	0
2	3	-1	0	0	0
3	4	-1	0	0	0
4	5	-1	0	0	0
5	6	-1	0	0	0
6	7	-1	0	0	0
7	8	-1	0	0	0
8	9	-1	0	0	0
9	10	-1	0	0	0
111	10	-1	0	0	0
111	101	-1	0	0	0
101	102	-1	0	0	0
102	93	-1	0	0	0
91	93	-1	0	0	0
91	81	-1	0	0	0
91	101	-1	0	0	0
81	71	-1	0	0	0
71	61	-1	0	0	0
61	51	-1	0	0	0
51	41	-1	0	0	0
41	31	-1	0	0	0
41	42	-1	0	0	0
41	3	-1	0	0	0
31	2	-1	0	0	0
51	4	-1	0	0	0
5	61	-1	0	0	0
62	61	-1	0	0	0
51	52	-1	0	0	0
6	71	-1	0	0	0
71	72	-1	0	0	0
82	81	-1	0	0	0
81	7	-1	0	0	0
91	8	-1	0	0	0
101	9	-1	0	0	0
111	112	-1	0	0	0
112	102	-1	0	0	0
93	82	-1	0	0	0
82	72	-1	0	0	0
72	62	-1	0	0	0
52	62	-1	0	0	0
52	42	-1	0	0	0
52	53	-1	0	0	0
62	63	-1	0	0	0
72	73	-1	0	0	0
74	73	-1	0	0	0
84	83	-1	0	0	0
83	82	-1	0	0	0
94	92	-1	0	0	0
92	93	-1	0	0	0
103	104	-1	0	0	0
104	102	-1	0	0	0
113	112	-1	0	0	0
113	114	-1	0	0	0
116	114	-1	0	0	0
103	105	-1	0	0	0
95	94	-1	0	0	0
85	84	-1	0	0	0
74	75	-1	0	0	0
66	63	-1	0	0	0
66	74	-1	0	0	0
73	63	-1	0	0	0
63	53	-1	0	0	0
73	83	-1	0	0	0
74	84	-1	0	0	0
75	85	-1	0	0	0
85	95	-1	0	0	0
84	94	-1	0	0	0
83	92	-1	0	0	0
92	104	-1	0	0	0
104	113	-1	0	0	0
114	103	-1	0	0	0
103	94	-1	0	0	0
95	105	-1	0	0	0
105	116	-1	0	0	0
117	116	-1	0	0	0
106	105	-1	0	0	0
106	107	-1	0	0	0
117	115	-1	0	0	0
115	118	-1	0	0	0
109	107	-1	0	0	0
107	97	-1	0	0	0
107	115	-1	0	0	0
117	106	-1	0	0	0
106	96	-1	0	0	0
96	97	-1	0	0	0
96	86	-1	0	0	0
86	85	-1	0	0	0
96	95	-1	0	0	0
26	25	-1	0	0	0
[NumArcSegments] = 2
121	122	180	1	1	0	0	1
122	121	180	1	1	0	0	1
[NumHoles] = 0
[NumBlockLabels] = 101
2.6000000000000001	47.600000000000001	1	-1	0	90	0	1	0
2.6000000000000001	42.799999999999997	1	-1	0	180	0	1	0
2.6000000000000001	37.600000000000001	1	-1	0	-90	0	1	0
2.3999999999999999	32.799999999999997	1	-1	0	180	0	1	0
2.1000000000000001	28.100000000000001	1	-1	0	90	0	1	0
2.8999999999999999	22.399999999999999	1	-1	0	180	0	1	0
2.8999999999999999	17.399999999999999	1	-1	0	-90	0	1	0
2.7999999999999998	12.6	1	-1	0	180	0	1	0
2.6000000000000001	8.0999999999999996	1	-1	0	90	0	1	0
2.2999999999999998	2.5	1	-1	0	180	0	1	0
7.4000000000000004	47.399999999999999	1	-1	0	180	0	1	0
7.5999999999999996	43.100000000000001	1	-1	0	-90	0	1	0
7.4000000000000004	38.100000000000001	1	-1	0	180	0	1	0
6.7999999999999998	33	1	-1	0	90	0	1	0
7.2999999999999998	27.699999999999999	1	-1	0	180	0	1	0
7.4000000000000004	22.899999999999999	1	-1	0	-90	0	1	0
7.4000000000000004	18.199999999999999	1	-1	0	180	0	1	0
7.4000000000000004	13.1	1	-1	0	90	0	1	0
7.5999999999999996	7.7999999999999998	1	-1	0	180	0	1	0
7.5999999999999996	3	1	-1	0	-90	0	1	0
12.6	47.700000000000003	1	-1	0	90	0	1	0
12.6	42.799999999999997	1	-1	0	0	0	1	0
12.199999999999999	37.799999999999997	1	-1	0	-90	0	1	0
12.4	32.700000000000003	1	-1	0	0	0	1	0
12.6	27.699999999999999	1	-1	0	90	0	1	0
12.6	22.600000000000001	1	-1	0	0	0	1	0
12.699999999999999	18	1	-1	0	-90	0	1	0
12.699999999999999	12.9	1	-1	0	0	0	1	0
12.4	7.7999999999999998	1	-1	0	90	0	1	0
12.699999999999999	3.1000000000000001	1	-1	0	0	0	1	0
17.199999999999999	47.899999999999999	1	-1	0	0	0	1	0
17.5	42.899999999999999	1	-1	0	-90	0	1	0
17.5	37.600000000000001	1	-1	0	0	0	1	0
17.5	32.5	1	-1	0	90	0	1	0
17.5	28	1	-1	0	0	0	1	0
17.399999999999999	22.399999999999999	1	-1	0	-90	0	1	0
17.800000000000001	17.600000000000001	1	-1	0	0	0	1	0
17.5	12.6	1	-1	0	90	0	1	0
17.699999999999999	8.0999999999999996	1	-1	0	0	0	1	0
17.699999999999999	3.2999999999999998	1	-1	0	-90	0	1	0
22.199999999999999	47.700000000000003	1	-1	0	90	0	1	0
22.5	42.799999999999997	1	-1	0	180	0	1	0
22.699999999999999	37.899999999999999	1	-1	0	-90	0	1	0
22.699999999999999	32.799999999999997	1	-1	0	180	0	1	0
22.5	27.699999999999999	1	-1	0	90	0	1	0
22.699999999999999	22.899999999999999	1	-1	0	180	0	1	0
22.699999999999999	17.899999999999999	1	-1	0	-90	0	1	0
22.699999999999999	13.1	1	-1	0	180	0	1	0
22.5	7.5999999999999996	1	-1	0	90	0	1	0
22.699999999999999	3	1	-1	0	180	0	1	0
27.5	47.899999999999999	1	-1	0	180	0	1	0
27.5	42.799999999999997	1	-1	0	-90	0	1	0
27.600000000000001	37.899999999999999	1	-1	0	180	0	1	0
27.600000000000001	32.799999999999997	1	-1	0	90	0	1	0
27.300000000000001	27.399999999999999	1	-1	0	180	0	1	0
27.300000000000001	21.899999999999999	1	-1	0	-90	0	1	0
27.5	17.699999999999999	1	-1	0	180	0	1	0
27.5	12.800000000000001	1	-1	0	90	0	1	0
27.199999999999999	7.5	1	-1	0	180	0	1	0
27.800000000000001	3	1	-1	0	-90	0	1	0
32.200000000000003	47.700000000000003	1	-1	0	90	0	1	0
32.5	42.799999999999997	1	-1	0	0	0	1	0
32.5	37.600000000000001	1	-1	0	-90	0	1	0
32.5	32.299999999999997	1	-1	0	0	0	1	0
32.5	27.399999999999999	1	-1	0	90	0	1	0
32.600000000000001	22.699999999999999	1	-1	0	0	0	1	0
32.5	17.300000000000001	1	-1	0	-90	0	1	0
32.5	12.800000000000001	1	-1	0	0	0	1	0
32.5	7.9000000000000004	1	-1	0	90	0	1	0
32.899999999999999	3	1	-1	0	0	0	1	0
37.399999999999999	47.600000000000001	1	-1	0	0	0	1	0
37.100000000000001	42.899999999999999	1	-1	0	-90	0	1	0
37.399999999999999	37.600000000000001	1	-1	0	0	0	1	0
37.299999999999997	32.5	1	-1	0	90	0	1	0
37.299999999999997	27.5	1	-1	0	0	0	1	0
37.399999999999999	22.600000000000001	1	-1	0	-90	0	1	0
37.399999999999999	17.600000000000001	1	-1	0	0	0	1	0
37.799999999999997	13.1	1	-1	0	90	0	1	0
37.600000000000001	7.7999999999999998	1	-1	0	0	0	1	0
38.100000000000001	2.6000000000000001	1	-1	0	-90	0	1	0
42.600000000000001	48.100000000000001	1	-1	0	90	0	1	0
42.899999999999999	42.600000000000001	1	-1	0	180	0	1	0
42.299999999999997	37.600000000000001	1	-1	0	-90	0	1	0
42.399999999999999	33.100000000000001	1	-1	0	180	0	1	0
42.600000000000001	27.5	1	-1	0	90	0	1	0
42.600000000000001	22.699999999999999	1	-1	0	180	0	1	0
42.899999999999999	17.699999999999999	1	-1	0	-90	0	1	0
42.700000000000003	12.800000000000001	1	-1	0	180	0	1	0
42.299999999999997	7.7999999999999998	1	-1	0	90	0	1	0
42.700000000000003	2.7999999999999998	1	-1	0	180	0	1	0
47.700000000000003	47.700000000000003	1	-1	0	180	0	1	0
47.399999999999999	42.899999999999999	1	-1	0	-90	0	1	0
47.600000000000001	37.200000000000003	1	-1	0	180	0	1	0
47.399999999999999	32.299999999999997	1	-1	0	90	0	1	0
47.700000000000003	27.199999999999999	1	-1	0	180	0	1	0
47.600000000000001	22.600000000000001	1	-1	0	-90	0	1	0
47.200000000000003	17.699999999999999	1	-1	0	180	0	1	0
47.600000000000001	12.800000000000001	1	-1	0	90	0	1	0
47.399999999999999	7.5999999999999996	1	-1	0	180	0	1	0
47.600000000000001	3.2999999999999998	1	-1	0	-90	0	1	0
24.5	58.5	2	-1	0	0	0	1	0
